L6/1726535/Vaos.dss
! ==========================================================
! VAOS DE SAIDA — barra de MT da SE -> cabeceira do alimentador
! Derivado de CTMT.BARR e CTMT.UNI_TR_AT: a BDGD nao modela o
! arranjo interno da subestacao, so o vinculo logico.
! Cada vao e o disjuntor de saida do alimentador.
! ==========================================================
New Line.VAO_BNR07 phases=3 Bus1=198160087.1.2.3 Bus2=segm_2571269211.1.2.3 Switch=y r1=0.0001 r0=0.0001 x1=0 x0=0 c1=0 c0=0
New Monitor.M_BNR07 element=Line.VAO_BNR07 terminal=1 mode=1 ppolar=no
New Line.VAO_BNR05 phases=3 Bus1=198160087.1.2.3 Bus2=segm_2571269278.1.2.3 Switch=y r1=0.0001 r0=0.0001 x1=0 x0=0 c1=0 c0=0
New Monitor.M_BNR05 element=Line.VAO_BNR05 terminal=1 mode=1 ppolar=no
New Line.VAO_BNR06 phases=3 Bus1=198160087.1.2.3 Bus2=segm_2571269233.1.2.3 Switch=y r1=0.0001 r0=0.0001 x1=0 x0=0 c1=0 c0=0
New Monitor.M_BNR06 element=Line.VAO_BNR06 terminal=1 mode=1 ppolar=no
New Line.VAO_BNR04 phases=3 Bus1=198160087.1.2.3 Bus2=segm_2571269318.1.2.3 Switch=y r1=0.0001 r0=0.0001 x1=0 x0=0 c1=0 c0=0
New Monitor.M_BNR04 element=Line.VAO_BNR04 terminal=1 mode=1 ppolar=no
